Another new text file, MODIFIED in remote repo.
New line.
